80 
ALAHAX.Ir.log -1937.618767 -1936.912495 -1936.977944 0 NIF DONE
Ir    0.056817   -0.262408   -0.026890
H    0.011736   -0.630204   -1.608587
 P   -2.225327    0.225479    0.182617
 P    2.364144   -0.041614    0.016112
 O   -1.994266   -3.541584    0.025749
 N    0.189874    1.855148   -0.387298
 C    0.020682   -2.351515    0.537676
 H    1.042304   -2.741257    0.488577
 H   -0.323328   -2.438003    1.574629
 C   -0.852253   -3.219402   -0.298940
 C   -0.304034   -3.727554   -1.627763
 H    0.638919   -4.266100   -1.480459
 H   -0.100052   -2.880430   -2.289036
 H   -1.036116   -4.389555   -2.093046
 C   -2.093406    2.072371    0.446897
 H   -3.005996    2.609761    0.176040
 H   -1.958014    2.191934    1.528823
 C   -0.889166    2.677094   -0.208767
 C   -0.847904    4.029839   -0.525512
 H   -1.736906    4.632251   -0.370471
 C    0.329729    4.600285   -1.007563
 H    0.380799    5.655076   -1.255412
 C    1.445700    3.774514   -1.140864
 H    2.392345    4.169036   -1.495551
 C    1.354268    2.422894   -0.831212
 C    2.535840    1.511427   -1.005848
 H    3.473460    2.049761   -0.840331
 H    2.543392    1.152422   -2.042367
 C   -3.255792   -0.262610    1.736912
 C   -3.936961   -1.628943    1.545301
 H   -3.224610   -2.403873    1.255747
 H   -4.728605   -1.591767    0.791937
 H   -4.406974   -1.922585    2.492611
 C   -2.245660   -0.378537    2.898898
 H   -2.790887   -0.599064    3.825285
 H   -1.679074    0.545462    3.056196
 H   -1.526630   -1.180003    2.723932
 C   -4.320808    0.785256    2.127003
 H   -5.067293    0.944387    1.348891
 H   -3.889405    1.755075    2.389679
 H   -4.850890    0.422879    3.016175
 C   -3.288262    0.103431   -1.407026
 C   -2.626647    1.022841   -2.458296
 H   -1.563553    0.794576   -2.574448
 H   -2.732523    2.083867   -2.212909
 H   -3.116794    0.860900   -3.425805
 C   -4.751035    0.545774   -1.229736
 H   -4.834567    1.563120   -0.833345
 H   -5.314861   -0.126238   -0.579832
 H   -5.244260    0.539320   -2.209579
 C   -3.234815   -1.341867   -1.936232
 H   -3.843873   -1.411775   -2.846262
 H   -3.599702   -2.079707   -1.220969
 H   -2.209266   -1.614259   -2.193640
 C    3.067465    0.418577    1.746290
 C    2.667780   -0.701073    2.729152
 H    3.160071   -1.651099    2.510161
 H    1.586109   -0.866695    2.704896
 H    2.950528   -0.409131    3.747914
 C    2.356197    1.714550    2.192745
 H    2.637222    1.935239    3.229362
 H    1.268418    1.605051    2.150616
 H    2.640387    2.577234    1.583250
 C    4.584595    0.659719    1.797119
 H    4.861134    1.005539    2.800901
 H    4.902141    1.433183    1.090056
 H    5.160518   -0.246397    1.598999
 C    3.575684   -1.222390   -0.887149
 C    3.929769   -2.430314    0.003345
 H    3.039110   -2.941606    0.376689
 H    4.547534   -2.150258    0.859087
 H    4.502415   -3.154251   -0.588715
 C    4.879564   -0.540524   -1.353551
 H    5.477770   -0.147167   -0.531692
 H    4.691984    0.272966   -2.059441
 H    5.494028   -1.282529   -1.878238
 C    2.831877   -1.741906   -2.132980
 H    3.487553   -2.429708   -2.681348
 H    2.547534   -0.936097   -2.815894
 H    1.920172   -2.266868   -1.857766
