44 
HAKCUR.Re.log -1688.523688 -1688.160667 -1688.218721 0 NIF DONE
Re   -0.000023   -0.328131   -0.023434
 H   -2.706726   -2.533658   -1.401358
 H    2.706592   -2.533507   -1.401888
 H    2.792028   -2.781192    0.343733
 H    2.906118    0.137683   -2.498527
 H    4.367348    0.351004   -1.495099
 P    2.415503   -0.436878   -0.186096
 P   -2.415551   -0.436672   -0.186202
 P    0.000164    2.129448   -0.123304
 O   -0.000529   -0.642377    3.040033
 O   -0.000074   -3.353564   -0.772125
 C   -0.000175   -0.488928    1.872908
 C   -0.000067   -2.215578   -0.485432
 C    3.282601    0.496097   -1.536865
 C    3.109071   -2.127136   -0.471687
 C    3.392896    0.060209    1.307727
 C   -3.109216   -2.126972   -0.471301
 C   -3.392991    0.060946    1.307412
 C   -3.282495    0.495971   -1.537296
 C   -1.400639    3.061485    0.660980
 C    1.400736    3.061048    0.661918
 C    0.000726    2.888659   -1.817579
 H    3.063502    1.563897   -1.465965
 H    4.201994   -2.103600   -0.520361
 H    4.464220   -0.118982    1.170038
 H    3.229188    1.114760    1.533861
 H    3.027352   -0.524207    2.155841
 H   -4.202137   -2.103397   -0.520018
 H   -2.792235   -2.780785    0.344339
 H   -4.464300   -0.118366    1.169769
 H   -3.027428   -0.523106    2.155768
 H   -3.229368    1.115600    1.533120
 H   -4.367259    0.351000   -1.495545
 H   -3.063286    1.563771   -1.466694
 H   -2.905991    0.137251   -2.498835
 H   -1.262166    4.142209    0.555402
 H   -2.350594    2.783840    0.201444
 H   -1.441950    2.804538    1.722449
 H    1.262550    4.141830    0.556543
 H    1.441422    2.803794    1.723339
 H    2.350881    2.783319    0.202828
 H    0.001482    3.983709   -1.777334
 H    0.882976    2.542688   -2.361652
 H   -0.882077    2.543959   -2.361573
