113 
TEBPOG.Ru.log -2977.389367 -2976.442912 -2976.532845 0 NIF DONE
Ru   -0.046170    0.062351    0.394477
 H    0.381514    1.017595   -0.894936
 H   -2.245861   -1.833538    0.371006
 H    0.634067   -2.956432   -3.896546
 H   -1.482994   -4.085013   -2.555296
 P    2.216971    0.041456    1.005185
 P   -2.041190    1.215174    0.005588
 O   -0.849601   -1.517647    2.902908
 N   -1.070851   -2.477648   -1.161961
 N    0.600488   -1.598940   -2.205424
 C   -0.549276   -0.929341    1.935484
 C   -0.162207   -1.445480   -1.065757
 C   -0.873478   -3.232402   -2.308452
 C    0.168189   -2.677207   -2.966967
 C   -2.134625   -2.759219   -0.191908
 C   -3.480478   -3.060484   -0.864093
 H   -3.420077   -4.000144   -1.430424
 H   -3.728914   -2.267099   -1.571285
 C   -4.569706   -3.201770    0.209053
 H   -4.683292   -2.241158    0.729737
 H   -5.534557   -3.413711   -0.265689
 C   -4.212432   -4.300521    1.222454
 H   -4.213048   -5.272497    0.708174
 H   -4.977611   -4.360450    2.005436
 C   -2.829959   -4.061565    1.849457
 H   -2.563900   -4.889824    2.515892
 H   -2.854943   -3.159439    2.473333
 C   -1.740664   -3.879197    0.781669
 H   -0.784818   -3.634479    1.253090
 H   -1.602124   -4.811175    0.215229
 C    1.692634   -0.716366   -2.642344
 H    1.990563   -0.164565   -1.753933
 C    2.904818   -1.507681   -3.150942
 H    2.635320   -2.080543   -4.048814
 H    3.222666   -2.223492   -2.390191
 C    4.042657   -0.543612   -3.513679
 H    4.357889   -0.006557   -2.609471
 H    4.913675   -1.110636   -3.861670
 C    3.590268    0.466649   -4.578045
 H    3.356290   -0.070613   -5.508583
 H    4.402581    1.164367   -4.813260
 C    2.348913    1.239732   -4.109202
 H    2.626235    1.865760   -3.252136
 H    1.998425    1.919579   -4.894406
 C    1.208434    0.299558   -3.687481
 H    0.382670    0.878234   -3.263631
 H    0.822174   -0.242255   -4.562574
 C    3.252029    1.516826    0.538814
 C    2.829974    2.369125   -0.491225
 H    1.883334    2.167181   -0.982135
 C    3.594171    3.478220   -0.858207
 H    3.245023    4.126250   -1.657395
 C    4.789177    3.758636   -0.194637
 H    5.382069    4.624412   -0.475755
 C    5.211702    2.927070    0.844825
 H    6.133768    3.144337    1.376667
 C    4.448299    1.818432    1.211921
 H    4.781813    1.190094    2.031604
 C    2.529849   -0.034522    2.831962
 C    3.526447   -0.827830    3.416607
 H    4.155435   -1.456298    2.794885
 C    3.713774   -0.820918    4.801051
 H    4.485587   -1.445922    5.241664
 C    2.912846   -0.019420    5.614309
 H    3.057979   -0.017712    6.690850
 C    1.916249    0.773116    5.039305
 H    1.280822    1.391615    5.666548
 C    1.722823    0.761002    3.659840
 H    0.927984    1.353249    3.213820
 C    3.234832   -1.396899    0.408364
 C    2.606883   -2.652915    0.401856
 H    1.566767   -2.723694    0.703086
 C    3.297695   -3.792795   -0.004878
 H    2.794768   -4.755561   -0.002910
 C    4.626295   -3.694314   -0.427563
 H    5.163053   -4.580325   -0.754222
 C    5.255994   -2.449255   -0.437772
 H    6.284935   -2.361030   -0.774883
 C    4.566349   -1.307766   -0.020061
 H    5.069460   -0.347275   -0.036703
 C   -3.200790    1.446609    1.433036
 C   -3.582986    0.315826    2.174816
 H   -3.184814   -0.658159    1.919682
 C   -4.459175    0.428857    3.251526
 H   -4.740281   -0.459656    3.809487
 C   -4.959351    1.680442    3.619702
 H   -5.634997    1.771863    4.465219
 C   -4.579838    2.811788    2.897965
 H   -4.960295    3.790070    3.178294
 C   -3.712040    2.697119    1.809196
 H   -3.434324    3.585765    1.253530
 C   -3.186701    0.566954   -1.305122
 C   -2.616484    0.168723   -2.524523
 H   -1.542539    0.231571   -2.651955
 C   -3.412524   -0.318286   -3.558669
 H   -2.950619   -0.623559   -4.493144
 C   -4.795482   -0.428359   -3.386837
 H   -5.416995   -0.816745   -4.188524
 C   -5.372184   -0.043428   -2.176018
 H   -6.445560   -0.128719   -2.031766
 C   -4.574440    0.455067   -1.141917
 H   -5.036808    0.756271   -0.208164
 C   -1.783443    2.957142   -0.578888
 C   -0.637186    3.640812   -0.147184
 H    0.078573    3.124394    0.485425
 C   -0.401466    4.955721   -0.545171
 H    0.496070    5.465650   -0.206482
 C   -1.307722    5.605465   -1.386636
 H   -1.121420    6.627262   -1.705286
 C   -2.452249    4.934762   -1.820472
 H   -3.160298    5.433193   -2.476693
 C   -2.691489    3.619096   -1.417173
 H   -3.583873    3.106812   -1.762318
