66 
ZUZWUO.Zn.log -4148.405987 -4147.857836 -4147.922952 0 NIF DONE
Zn   -0.013083    0.001644   -1.836336
 H    0.631680    3.196943   -2.160443
 H    2.327647    3.379137   -1.680807
 H    0.001860   -0.003702    3.220143
 B   -0.000090   -0.003383    2.010547
 S   -1.159147    1.898137   -0.638400
 N    0.873274    3.345560    0.587955
 N    0.409663    1.435749    1.586165
 C    0.061715    2.234291    0.537107
 C    1.430862    2.047891    2.287930
 H    1.864554    1.588171    3.160642
 C    1.725029    3.218451    1.680102
 H    2.453159    3.962821    1.942238
 C    0.944198    4.470348   -0.409083
 C    2.006510    5.484824    0.047842
 H    1.768189    5.920101    1.023317
 H    2.030747    6.299729   -0.679671
 H    3.008059    5.046460    0.082434
 C    1.369658    3.899145   -1.773957
 H    1.483211    4.719199   -2.489897
 C   -0.413070    5.190894   -0.477029
 H   -0.685224    5.584110    0.507755
 H   -1.201166    4.521752   -0.819085
 H   -0.338728    6.030347   -1.175150
 S   -1.065088   -1.947526   -0.643635
 N   -3.336801   -0.921329    0.588614
 N   -1.451593   -0.369058    1.588495
 C   -1.968342   -1.065927    0.536677
 C   -2.493068    0.202065    2.294857
 H   -2.312744    0.802412    3.171266
 C   -3.653670   -0.127922    1.686101
 H   -4.662562    0.125918    1.951886
 C   -4.345495   -1.421230   -0.410130
 C   -5.755790   -1.010323    0.046134
 H   -6.015189   -1.439139    1.019042
 H   -6.471692   -1.393954   -0.684792
 H   -5.877023    0.076071    0.085181
 C   -4.062410   -0.764588   -1.773405
 H   -4.101223    0.324688   -1.679891
 H   -4.822925   -1.082297   -2.493627
 H   -3.080722   -1.043801   -2.154857
 C   -4.290168   -2.956985   -0.479874
 H   -4.498428   -3.390124    0.503760
 H   -3.315859   -3.305344   -0.819447
 H   -5.052145   -3.311915   -1.180682
 S    2.206734    0.050475   -0.652645
 N    2.469287   -2.425899    0.583932
 N    1.042613   -1.076096    1.584396
 C    1.902916   -1.171875    0.530583
 C    1.076397   -2.262321    2.292288
 H    0.469326   -2.407724    3.170566
 C    1.946562   -3.098254    1.683697
 H    2.237158   -4.096965    1.950251
 C    3.411448   -3.045023   -0.413217
 C    3.768294   -4.469420    0.044553
 H    4.269989   -4.477238    1.017210
 H    4.459954   -4.895396   -0.686256
 H    2.891279   -5.121836    0.085130
 C    2.706107   -3.133754   -1.778732
 H    1.787015   -3.720462   -1.690989
 H    3.369111   -3.626914   -2.496591
 H    2.450767   -2.145548   -2.159792
 C    4.708467   -2.220929   -0.482420
 H    5.181252   -2.171348    0.503644
 H    4.517074   -1.207732   -0.832814
 H    5.404548   -2.704844   -1.174501
